[General]
network = Floorplan
seed-set = ${processid}
repeat = 10
sim-time-limit = 50000s
**.userCount=50
**.broadcastRadius = 40m
**.maxCopies = 3
**.sizeX = 200m
**.sizeY = 200m
**.hearWindow = 5
